Data/case247.m
function mpc = case247
%CASE247    Power flow data for the IEEE247(modified version of IEEE 300) bus test case.
%   Please see the paper from Mina Youssef about cascading failure metric.
%   Please see CASEFORMAT for details on the case file format.
%   This data was converted from IEEE Common Data Format
%   (ieee300cdf.txt) on 20-Sep-2004 by cdf2matp, rev. 1.11
%   See end of file for warnings generated during conversion.
%
%   Converted from IEEE CDF file from:
%       http://www.ee.washington.edu/research/pstca/
% 
%  13/05/91 CYME INTERNATIONAL    100.0 1991 S IEEE 300-BUS TEST SYSTEM

%   MATPOWER
%   $Id: case300.m,v 1.11 2010/03/10 18:08:14 ray Exp $

%% MATPOWER Case Format : Version 2
mpc.version = '2';

%%-----  Power Flow Data  -----%%
%% system MVA base
mpc.baseMVA = 100;

%% bus data
%	bus_i	type	Pd	Qd	Gs	Bs	area	Vm	Va	baseKV	zone	Vmax	Vmin
mpc.bus = [
1	3	0       49	0	0	1	1.0284	5.95	115	1	1.06	0.94;
2	1	0.56	15	0	0	1	1.0354	7.74	115	1	1.06	0.94;
3	1	0.2     0	0	0	1	0.9971	6.64	230	1	1.06	0.94;
4	1	0       0	0	0	1	1.0308	4.71	345	1	1.06	0.94;
5	1	3.53	130	0	0	1	1.0191	4.68	115	1	1.06	0.94;
6	1	1.2     41	0	0	1	1.0312	6.99	115	1	1.06	0.94;
7	1	0       0	0	0	1	0.9934	6.19	230	1	1.06	0.94;
8	1	0.58	14	0	0	1	1.0153	2.4     115	1	1.06	0.94;
9	1	0.96	43	0	0	1	1.0034	2.85	115	1	1.06	0.94;
10	1	1.48	33	0	0	1	1.0205	1.35	230	1	1.06	0.94;
11	1	0.83	21	0	0	1	1.0057	2.46	115	1	1.06	0.94;
12	1	0       0	0	0	1	0.9974	5.21	230	1	1.06	0.94;
13	1	0.58	10	0	0	1	0.9977	-0.55	115	1	1.06	0.94;
14	1	1.6     60	0	0	1	0.9991	-4.81	115	1	1.06	0.94;
15	1	1.27	23	0	0	1	1.0343	-8.59	115	1	1.06	0.94;
16	1	0       0	0	0	1	1.0315	-2.65	345	1	1.06	0.94;
17	1	5.61	220	0	0	1	1.0649	-13.1	115	1	1.06	0.94;
18	1	0       0	0	0	1	0.982	1.08	230	1	1.06	0.94;
19	1	5.95	120	0	0	1	1.001	-2.46	115	1	1.06	0.94;
20	1	0.77	1	0	0	1	0.9752	1.62	230	1	1.06	0.94;
21	1	0.81	23	0	0	1	0.9963	-1.97	115	1	1.06	0.94;
22	1	0.21	7	0	0	1	1.0501	3.94	115	1	1.06	0.94;
23	1	0       0	0	0	1	1.0057	6.02	230	1	1.06	0.94;
24	1	0.45	12	0	0	1	1.0234	1.44	115	1	1.06	0.94;
25	1	0.28	9	0	0	1	0.9986	-1.73	115	1	1.06	0.94;
26	1	0.69	13	0	0	1	0.975	-4.9	115	1	1.06	0.94;
27	1	0.55	6	0	0	1	1.0244	-12.02	115	1	1.06	0.94;
28	1	0       0	0	0	1	1.0414	-7.94	345	1	1.06	0.94;
29	1	0       0	0	0	1	0.9757	-25.72	115	1	1.06	0.94;
30	1	0       0	0	0	1	1.0011	-22.59	230	1	1.06	0.94;
31	1	0.85	32	0	0	1	1.0201	-11.23	115	1	1.06	0.94;
32	1	1.55	18	0	0	1	1.0202	-12.56	115	1	1.06	0.94;
33	1	0	0	0	0	1	1.0535	-5.81	345	1	1.06	0.94;
34	1	0.46	-21	0	0	1	1.0216	-12.78	115	1	1.06	0.94;
35	1	0.86	0	0	0	1	1.0292	-10.45	115	1	1.06	0.94;
36	1	0	0	0	0	1	1.0448	-7.44	345	1	1.06	0.94;
37	1	0.39	9	0	0	1	1.0006	-16.79	115	1	1.06	0.94;
38	1	1.95	29	0	0	1	1.0086	-17.47	115	1	1.06	0.94;
39	1	0	0	0	0	1	1.0215	-14.74	230	1	1.06	0.94;
40	1	0	0	0	0	1	1.0344	-11.75	345	1	1.06	0.94;
41	1	0.58	11.8	0	0	1	0.9777	-23.17	115	1	1.06	0.94;
42	1	0.41	19	0	0	1	1.0019	-16.09	115	1	1.06	0.94;
43	1	0.92	26	0	0	1	1.0475	-2.95	115	1	1.06	0.94;
44	2	0       5	0	0	1	1.0253	-8.15	115	1	1.06	0.94;
45	1	0.61	28	0	0	1	0.9979	-11.86	115	1	1.06	0.94;
46	1	0.69	3	0	0	1	0.9959	-17.6	115	1	1.06	0.94;
47	1	0.1	1	0	0	1	1.005	-16.25	115	1	1.06	0.94;
48	1	0.22	10	0	0	1	1.015	-12.21	115	1	1.06	0.94;
49	1	0.98	20	0	0	1	1.0335	-8	115	1	1.06	0.94;
50	1	0.14	1	0	0	1	0.9918	-5.99	115	1	1.06	0.94;
51	1	2.18	106	0	0	1	0.9789	-5.29	115	1	1.06	0.94;
52	1	0	0	0	0	1	1.0246	-9.56	230	1	1.06	0.94;
53	1	2.27	110	0	0	1	0.9906	-3.47	115	1	1.06	0.94;
54	1	0	0	0	0	1	1.016	-1.1	230	1	1.06	0.94;
55	1	0.7	30	0	0	1	0.9583	-17.62	115	1	1.06	0.94;
56	1	0	0	0	0	1	0.948	-12.97	230	1	1.06	0.94;
57	1	0	0	0	0	1	0.963	-25.66	115	1	1.06	0.94;
58	1	0.56	20	0	0	1	0.9513	-35.16	115	1	1.06	0.94;
59	1	1.16	38	0	0	1	0.9793	-29.88	115	1	1.06	0.94;
60	1	0.57	19	0	0	1	0.9696	-27.48	115	1	1.06	0.94;
61	1	2.24	71	0	0	1	0.9775	-25.77	115	1	1.06	0.94;
62	1	0	0	0	0	1	0.9964	-22	230	1	1.06	0.94;
63	1	2.08	107	0	0	1	0.9632	-26.54	115	1	1.06	0.94;
64	1	0.74	28	0	0	1	0.9837	-24.94	115	1	1.06	0.94;
65	1	0	0	0	0	1	0.99	-24.05	115	1	1.06	0.94;
66	1	0.48	14	0	0	1	0.982	-24.97	115	1	1.06	0.94;
67	1	0.28	7	0	0	1	0.9872	-24.97	115	1	1.06	0.94;
68	1	0	0	0	0	1	1.034	-18.89	345	1	1.06	0.94;
69	1	0.37	13	0	0	1	1.025	-17.16	115	1	1.06	0.94;
70	1	0	0	0	0	1	0.9872	-17.68	230	1	1.06	0.94;
71	1	0	0	0	0	1	0.9909	-14.19	230	1	1.06	0.94;
72	1	0	0	0	0	1	0.9921	-7.77	230	1	1.06	0.94;
73	1	0	0	0	0	1	1.0151	-20.96	230	1	1.06	0.94;
74	1	0.44	0	0	0	1	1.0317	-11.13	115	1	1.06	0.94;
75	1	0.66	0	0	0	1	1.0272	-11.23	115	1	1.06	0.94;
76	1	0.17	0	0	0	1	1.052	-9.4	115	1	1.06	0.94;
77	1	0.16	0	0	0	1	1.052	-6.2	115	1	1.06	0.94;
78	1	0.6	0	0	0	1	0.993	-9.42	115	1	1.06	0.94;
79	1	0.4	0	0	0	1	1.0183	-13.24	115	1	1.06	0.94;
80	1	0.67	0	0	0	1	1	-14.6	115	1	1.06	0.94;
81	1	0.83	0	0	0	1	0.9894	-20.27	115	1	1.06	0.94;
82	1	0	0	0	0	1	1.006	-14.45	115	1	1.06	0.94;
83	1	0.78	0	0	0	1	1.0008	-15.23	115	1	1.06	0.94;
84	1	0.32	0	0	0	1	1.0288	-12.06	115	1	1.06	0.94;
85	1	0.09	0	0	0	1	0.9958	-17.33	115	1	1.06	0.94;
86	1	0.5	0	0	0	1	1.0223	-12.94	115	1	1.06	0.94;
87	1	0.05	0	0	0	1	1.0095	-16.03	115	1	1.06	0.94;
88	1	1.12	0	0	0	1	0.99	-20.26	115	1	1.06	0.94;
89	1	0.31	0	0	0	1	0.9749	-26.06	115	1	1.06	0.94;
90	1	0.63	0	0	0	1	0.973	-24.72	115	1	1.06	0.94;
91	1	0.2	0	0	0	1	0.9725	-28.69	115	1	1.06	0.94;
92	1	0.26	0	0	0	1	0.97	-25.38	115	1	1.06	0.94;
93	1	0.18	0	0	0	1	0.9747	-28.59	115	1	1.06	0.94;
94	1	0	0	0	0	1	0.9603	-13.57	115	2	1.06	0.94;
95	1	0	0	0	0	1	1.0249	-12.69	115	2	1.06	0.94;
96	1	0	0	0	325	1	0.9348	-4.72	115	2	1.06	0.94;
97	1	0.14	650	0	0	1	0.9298	-4.12	115	2	1.06	0.94;
98	1	0	0	0	0	1	1.0435	5.17	115	2	1.06	0.94;
99	1	7.77	215	0	55	1	0.9584	-8.77	115	2	1.06	0.94;
100	1	5.35	55	0	0	1	0.9871	-12.64	115	2	1.06	0.94;
101	1	2.29	11.8	0	0	1	0.9728	-14.36	115	2	1.06	0.94;
102	1	0.78	1.4	0	0	1	1.0006	-17.64	115	2	1.06	0.94;
103	1	2.76	59.3	0	0	1	1.0233	-13.49	115	2	1.06	0.94;
104	1	5.15	82.7	0	0	1	1.0103	-18.43	115	2	1.06	0.94;
105	1	0.58	5.1	0	0	1	0.9978	-12.86	115	2	1.06	0.94;
106	1	3.81	37	0	0	1	1.0001	-10.52	230	2	1.06	0.94;
107	1	0	0	0	0	1	1.0024	-4.78	230	2	1.06	0.94;
108	1	0	0	0	0	1	1.0028	-4.4	230	2	1.06	0.94;
109	1	0	0	0	0	1	1.0191	5.56	230	2	1.06	0.94;
110	1	0	0	0	0	1	0.9861	6.06	230	2	1.06	0.94;
111	1	0	0	0	0	1	1.0045	3.04	230	2	1.06	0.94;
112	1	0	0	0	0	1	1.002	-5.46	230	2	1.06	0.94;
113	1	0	0	0	0	1	1.022	-8.04	230	2	1.06	0.94;
114	1	1.69	41.6	0	0	1	1.0193	-6.76	230	2	1.06	0.94;
115	1	0.55	18.2	0	0	1	1.0476	1.54	230	2	1.06	0.94;
116	1	2.74	99.8	0	0	1	1.0471	-1.45	230	2	1.06	0.94;
117	1	8.27	135.2	0	0	1	1.055	-6.35	230	2	1.06	0.94;
118	1	5.95	83.3	0	0	1	1.0117	-3.57	115	2	1.06	0.94;
119	1	3.88	114.7	0	0	1	1.043	-3.44	230	2	1.06	0.94;
120	1	1.45	58	0	0	1	1.051	0.05	230	2	1.06	0.94;
121	1	0.56	24.5	0	0	1	1.0155	-2.77	230	2	1.06	0.94;
122	1	0.9	35.5	0	0	1	1.0435	4.03	230	2	1.06	0.94;
123	1	0	0	0	0	1	1.016	-0.7	230	2	1.06	0.94;
124	1	0.24	14	0	0	1	1.0081	-0.16	230	2	1.06	0.94;
125	1	0	0	0	0	1	1.0528	4.32	230	2	1.06	0.94;
126	1	0	0	0	0	1	1.0528	8.36	230	2	1.06	0.94;
127	1	0.63	25	0	0	1	1.0577	0.28	230	2	1.06	0.94;
128	1	0	0	0	0	1	1.0735	5.23	230	2	1.06	0.94;
129	1	0	0	0	0	1	0.9869	6.34	230	2	1.06	0.94;
130	1	0	0	0	0	1	1.0048	4.13	230	2	1.06	0.94;
131	1	0.17	9	0	0	1	1.0535	9.24	230	2	1.06	0.94;
132	1	0	0	0	0	1	1.0435	10.46	230	2	1.06	0.94;
133	1	0.7	5	0	34.5	1	0.9663	-1.8	115	2	1.06	0.94;
134	1	2	50	0	0	1	1.0177	6.75	230	2	1.06	0.94;
135	1	0.75	50	0	0	1	0.963	5.15	115	2	1.06	0.94;
136	1	1.24	-24.3	0	0	1	0.9845	-11.93	230	2	1.06	0.94;
137	1	0	0	0	0	1	0.9987	-11.4	230	2	1.06	0.94;
138	1	0.33	16.5	0	0	1	0.9867	-9.82	230	2	1.06	0.94;
139	1	0	0	0	0	1	0.9998	-12.55	230	2	1.06	0.94;
140	1	0.35	15	0	0	1	1.036	8.85	230	2	1.06	0.94;
141	1	0.85	24	0	0	1	0.9918	18.5	230	2	1.06	0.94;
142	1	0	0.4	0	0	1	1.041	2.91	230	2	1.06	0.94;
143	1	0	0	0	-212	1	0.9839	9.66	230	2	1.06	0.94;
144	1	0	0	0	0	1	1.0002	26.31	230	2	1.06	0.94;
145	1	0	0	0	-103	1	0.9973	30.22	230	2	1.06	0.94;
146	1	3	95.7	0	0	1	0.9715	-6.91	230	2	1.06	0.94;
147	1	0	0	0	0	1	1.0024	-4.8	230	2	1.06	0.94;
148	1	0	0	0	0	1	0.9879	-6.68	230	2	1.06	0.94;
149	1	4.82	205	0	0	1	0.929	0.09	115	2	1.06	0.94;
150	1	7.64	291.1	0	0	1	0.9829	-9.94	115	2	1.06	0.94;
151	1	0.27	0	0	0	1	1.0244	-6.22	115	2	1.06	0.94;
152	1	1.64	43	0	53	1	0.9837	-12.75	115	2	1.06	0.94;
153	1	0	0	0	0	1	1.0622	-2.69	115	2	1.06	0.94;
154	1	1.76	83	0	0	1	0.973	-7.21	115	2	1.06	0.94;
155	1	0.05	4	0	0	1	1.0522	4.67	115	2	1.06	0.94;
156	1	0.28	12	0	0	1	1.0077	0.62	115	2	1.06	0.94;
157	1	4.27	173.6	0	0	1	0.9397	-6.56	115	2	1.06	0.94;
158	1	0.74	29	0	45	1	0.9699	-9.37	115	2	1.06	0.94;
159	1	0.69	49.3	0	0	1	0.9793	-3.09	115	2	1.06	0.94;
160	1	0.73	0	0	0	1	1.0518	-1.33	230	2	1.06	0.94;
161	1	2.41	89	0	0	1	1.0447	-4.19	230	2	1.06	0.94;
162	1	0.4	4	0	0	1	0.9717	7.12	115	2	1.06	0.94;
163	1	1.37	16.6	0	0	1	1.0386	-6.85	230	2	1.06	0.94;
164	1	0	0	0	0	1	1.0522	-4.33	230	2	1.06	0.94;
165	1	0.6	24.3	0	0	1	1.065	2.17	230	2	1.06	0.94;
166	1	0.6	24.3	0	0	1	1.065	1.4	230	2	1.06	0.94;
167	1	1.83	43.6	0	0	1	1.0533	-0.72	230	2	1.06	0.94;
168	1	0.07	2	0	0	1	0.9975	-25.84	66	3	1.06	0.94;
169	1	0	0	0	-150	1	1.0551	-20.62	345	3	1.06	0.94;
170	1	4.89	53	0	0	1	1.0435	12.25	230	3	1.06	0.94;
171	1	8	72	0	0	1	0.9374	-11.18	230	3	1.06	0.94;
172	1	0	0	0	0	1	0.9897	-26.09	66	3	1.06	0.94;
173	1	0	0	0	0	1	1.0489	-19.21	345	3	1.06	0.94;
174	1	0	0	0	0	1	1.0357	-20.79	345	3	1.06	0.94;
175	1	0.1	3	0	0	1	0.9695	-25.32	115	3	1.06	0.94;
176	1	0.43	14	0	0	1	0.9907	-23.72	115	3	1.06	0.94;
177	1	0.64	21	0	0	1	1.015	-20.58	115	3	1.06	0.94;
178	1	0.35	12	0	0	1	0.9528	-26.05	115	3	1.06	0.94;
179	1	0.27	12	0	0	1	0.955	-25.93	115	3	1.06	0.94;
180	1	0.41	14	0	0	1	0.9692	-27.49	66	1	1.06	0.94;
181	1	0.38	13	0	0	1	0.9908	-25.33	66	3	1.06	0.94;
182	1	0.42	14	0	0	1	1.0033	-22.35	115	3	1.06	0.94;
183	1	0.72	24	0	0	1	0.9718	-25.7	66	3	1.06	0.94;
184	1	0	-5	0	0	1	0.9838	-26.07	66	3	1.06	0.94;
185	1	0.12	2	0	0	1	0.9992	-27.41	66	3	1.06	0.94;
186	2	0	-14.2	0	0	1	1.0137	-27.44	66	1	1.06	0.94;
187	1	0.07	2	0	0	1	0.9929	-26.28	66	3	1.06	0.94;
188	1	0.38	13	0	0	1	0.9999	-25.66	66	3	1.06	0.94;
189	1	0	0	0	0	1	0.9788	-24.22	115	3	1.06	0.94;
190	1	0.96	7	0	0	1	1.0017	-23.31	115	3	1.06	0.94;
191	1	0	0	0	0	1	1.0132	-22.51	138	3	1.06	0.94;
192	1	0	0	0	0	1	1.01	-11.67	16.5	3	1.06	0.94;
193	1	0.22	16	0	0	1	0.9919	-17.53	138	3	1.06	0.94;
194	1	0.47	26	0	0	1	0.9866	-20.23	138	3	1.06	0.94;
195	1	1.76	105	0	0	1	0.9751	-22.53	138	3	1.06	0.94;
196	1	1	75	0	0	1	1.0215	-22.2	138	3	1.06	0.94;
197	1	1.31	96	0	0	1	1.0075	-22.63	138	3	1.06	0.94;
198	1	0	0	0	0	1	1.0554	-21.15	345	3	1.06	0.94;
199	1	2.85	100	0	0	1	1.008	-21.73	138	3	1.06	0.94;
200	1	1.71	70	0	0	1	1	-22.49	138	3	1.06	0.94;
201	1	3.28	188	0	0	1	1.05	-23.17	20	3	1.06	0.94;
202	1	4.28	232	0	0	1	0.9965	-22.7	138	3	1.06	0.94;
203	1	1.73	99	0	0	1	1.0002	-21.55	230	3	1.06	0.94;
204	1	4.1	40	0	0	1	0.9453	-11.34	230	3	1.06	0.94;
205	1	0	0	0	0	1	1.018	-21.61	230	3	1.06	0.94;
206	1	5.38	369	0	0	1	1	-27.22	27	3	1.06	0.94;
207	1	2.23	148	0	0	1	1.0423	-20.94	138	3	1.06	0.94;
208	1	0.96	46	0	0	1	1.0496	-19.94	138	3	1.06	0.94;
209	1	0	0	0	0	1	1.04	-13.82	20	3	1.06	0.94;
210	1	1.59	107	0	-300	1	1.0535	-21.22	345	3	1.06	0.94;
211	1	4.48	143	0	0	1	1.0414	-23.19	138	3	1.06	0.94;
212	1	4.04	212	0	0	1	1	-25.9	66	3	1.06	0.94;
213	1	5.72	244	0	0	1	1.0387	-20.89	138	3	1.06	0.94;
214	1	2.69	157	0	0	1	1.0095	-21.03	138	3	1.06	0.94;
215	1	0	0	0	0	1	1.0165	-15.4	20	3	1.06	0.94;
216	1	0	0	0	0	1	1.0558	-21.1	345	3	1.06	0.94;
217	1	2.55	149	0	-150	1	1.01	-20.94	138	3	1.06	0.94;
218	1	0	0	0	0	1	1	-15.86	138	3	1.06	0.94;
219	1	0	0	0	-140	1	1.0237	-20.14	230	3	1.06	0.94;
220	1	0	0	0	0	1	1.05	-16.5	20	3	1.06	0.94;
221	1	0	0	0	0	1	0.993	-17.53	138	3	1.06	0.94;
222	1	0.08	3	0	0	1	1.01	-19.27	66	3	1.06	0.94;
223	1	0	0	0	0	1	0.9921	-20.21	66	3	1.06	0.94;
224	1	0.61	30	0	0	1	0.9711	-20.9	66	3	1.06	0.94;
225	1	0.77	33	0	0	1	0.9651	-21.74	66	3	1.06	0.94;
226	1	0.61	30	0	0	1	0.9688	-21.67	66	3	1.06	0.94;
227	1	0.29	14	0	45.6	1	0.976	-25.23	66	3	1.06	0.94;
228	1	0.29	14	0	0	1	0.9752	-25.65	66	3	1.06	0.94;
229	2	0	-17	0	0	1	1.0196	-23.8	66	3	1.06	0.94;
230	2	0	-29.4	0	0	1	1.0251	-20.06	230	3	1.06	0.94;
231	1	1.16	-24	0	0	1	1.0152	1.48	230	1	1.06	0.94;
232	1	0.02	-12.6	0	0	1	1.0146	-2.23	115	1	1.06	0.94;
233	1	0.02	-3.9	0	0	1	1.0005	-17.61	115	1	1.06	0.94;
234	2	0	26.5	0	0	1	0.981	-13.69	230	1	1.06	0.94;
235	1	0.25	-1.2	0	0	1	0.975	-23.42	115	1	1.06	0.94;
236	1	1.45	-34.9	0	0	1	0.9429	-34.31	115	1	1.06	0.94;
237	1	0.28	-20.5	0	0	1	0.9723	-37.58	115	1	1.06	0.94;
238	1	0.14	2.5	0	0	1	0.9604	-29.1	115	1	1.06	0.94;
239	2	0	-1.4	0	0	1	1.0009	-23.36	115	1	1.06	0.94;
240	1	0.51	17.4	0	0	1	0.9777	-28	230	1	1.06	0.94;
241	1	0.3	0.6	0	0	1	0.9583	-28.79	115	1	1.06	0.94;
242	2	0	76.7	0	0	1	1.0309	-17	345	3	1.06	0.94;
243	1	1	29.17	0	0	1	1.0128	3.9	86	2	1.06	0.94;
244	2	0	34.17	0	0	1	1.0244	-7.52	86	2	1.06	0.94;
245	1	0	0	0	0	1	1.0122	-15.18	115	2	1.06	0.94;
246	1	0	0	0	0	1	0.9653	-14.94	115	3	1.06	0.94;
247	1	0.9	0	0	0	1	1.0507	10.79	13.8	1	1.06	0.94;
];

%% generator data
%	bus	Pg	Qg	Qmax	Qmin	Vg	mBase	status	Pmax	Pmin	Pc1	Pc2	Qc1min	Qc1max	Qc2min	Qc2max	ramp_agc	ramp_10	ramp_30	ramp_q	apf
mpc.gen = [
    1	231.82	0	10      -10     1.0153	100	1	100	0	0	0	0	0	0	0	0	0	0	0	0;
    44	0.05	0	20      -20     1.0205	100	1	100	0	0	0	0	0	0	0	0	0	0	0	0;
    186	0.21	0	20      -20     1.001	100	1	100	0	0	0	0	0	0	0	0	0	0	0	0;
    229	0.23	0	25      -25     0.9583	100	1	100	0	0	0	0	0	0	0	0	0	0	0	0;
    230	0.33	0	35      12      0.9632	100	1	100	0	0	0	0	0	0	0	0	0	0	0	0;
    234	0.15	0	240     -240	1.025	100	1	475	0	0	0	0	0	0	0	0	0	0	0	0;
    239	0.11	0	96      -11     1.052	100	1	255	0	0	0	0	0	0	0	0	0	0	0	0;
    242	1.14	0	153     -153	1.052	100	1	390	0	0	0	0	0	0	0	0	0	0	0	0;
    244	1       0	56      -30     1       100	1	168	0	0	0	0	0	0	0	0	0	0	0	0;
];

%% branch data
%	fbus	tbus	r	x	b	rateA	rateB	rateC	ratio	angle	status	angmin	angmax
mpc.branch = [
1	43	6.00E-05 0.0124	0	9900	0	75	1.0082	0	1	-360	360;
2	6	0.0008	0.009	0	9900	0	0	0	0	1	-360	360;
2	8	0.02439	0.027	0	9900	0	0	0.9668	0	1	-360	360;
2	3	0.03624	0.052	0	9900	0	0	0.9796	0	1	-360	360;
3	7	0.01578	0.003	0	9900	0	0	1.0435	0	1	-360	360;
3	18	0.01578	0.069	0	9900	0	0	0.9391	0	1	-360	360;
3	129	0.01602	0.007	0	9900	0	0	1.0435	0	1	-360	360;
3	247	0       0.052	0	9900	0	0	1.0435	0	1	-360	360;
3	4	0       0.005	0	9900	0	0	1.0435	0	1	-360	360;
4	16	0.05558	0.019	0	9900	0	0	0       0	1	-360	360;
5	247	0.11118	0.006	0	9900	0	0	0       0	1	-360	360;
5	9	0.11118	0.029	0	9900	0	0	0       0	1	-360	360;
5	7	0.07622	0.039	0	9900	0	0	0       0	1	-360	360;
6	7	0.07622	0.039	0	9900	0	0	0       0	1	-360	360;
7	12	0.0537	0.009	0	9900	0	0	0       0	1	-360	360;
7	110	1.1068	0.007	0	9900	0	0	0       0	1	-360	360;
8	11	0.44364	0.0595	0	9900	0	0	1       0	1	-360	360;
8	14	0.50748	0.042	0	9900	0	0	1       0	1	-360	360;
9	11	0.66688	0.027	0	9900	0	0	1       0	1	-360	360;
10	11	0.6113	0.089	0	9900	0	0	1       0	1	-360	360;
10	12	0.4412	0.053	0	9900	0	0	1       0	1	-360	360;
11	13	0.30792	0.034	0	9900	0	0	1       0	1	-360	360;
12	20	0.0558	0.015	0	9900	0	0	0       0	1	-360	360;
13	19	0.73633	0.034	0	9900	0	0	1       0	1	-360	360;
14	15	0.76978	0.042	0	9900	0	0	1       0	1	-360	360;
15	31	0.75732	0.248	0	9900	0	0	1       0	1	-360	360;
15	74	0.07378	0.248	0	9900	0	0	0       0	1	-360	360;
15	75	0.03832	0.363	0	9900	0	0	0       0	1	-360	360;
15	17	0.36614	0.0311	0	9900	0	0	1       0	1	-360	360;
15	16	1.0593	0.038	0	9900	0	0	1       0	1	-360	360;
16	36	0.1567	0.022	0	9900	0	0	1       0	1	-360	360;
18	20	0.13006	0.018	0	9900	0	0	1       0	1	-360	360;
18	72	0.54484	0.08	0	9900	0	0	1       0	1	-360	360;
19	21	0.15426	0.033	0	9900	0	0	1       0	1	-360	360;
19	26	0.3849	0.186	0	9900	0	0	1       0	1	-360	360;
19	20	0.4412	0.014	0	9900	0	0	1       0	1	-360	360;
20	23	0.23552	0.034	0	9900	0	0	0       0	1	-360	360;
21	22	0       0.111	0	9900	0	0	0.9583  0	1	-360	360;
22	24	0.001	0.039	0	9900	0	0	0       0	1	-360	360;
22	23	0.001	0.064	0	9900	0	0	0       0	1	-360	360;
23	231	0.006	0.068 0.054	9900	0	0	0       0	1	-360	360;
24	25	0       0.071	0	9900	0	0	0       0   1	-360	360;
25	26	0.008	0.12  0.139 9900	0	0   0       0	1	-360	360;
25	232	0.001	0.13	0	9900	0	0	0       0	1	-360	360;
27	28	0.002	0.063	1.127	9900	0	0	0	0	1	-360	360;
27	32	0.006	0.012	0.018	9900	0	0	0	0	1	-360	360;
27	34	0.001	0.029	0.07	9900	0	0	0	0	1	-360	360;
27	35	0.001	0.043	0.014	9900	0	0	0	0	1	-360	360;
28	36	0.013	0.008	0.033	9900	0	0	0	0	1	-360	360;
29	60	0.013	0.06	0.081	9900	0	0	0	0	1	-360	360;
29	63	0.006	0.014	0.013	9900	0	0	0	0	1	-360	360;
29	64	0.008	0.029	0.018	9900	0	0	0	0	1	-360	360;
29	30	0.002	0.047	0.118	9900	0	0	0	0	1	-360	360;
30	73	0.006	0.027	0.016	9900	0	0	0	0	1	-360	360;
31	32	0.014	0.047	0.097	9900	0	0	0	0	1	-360	360;
31	34	0.065	0.064	0.121	9900	0	0	0	0	1	-360	360;
31	35	0.099	0.036	0.035	9900	0	0	0	0	1	-360	360;
31	43	0.096	0.081	0.048	9900	0	0	0	0	1	-360	360;
31	74	0.002	0.254	1.28	9900	0	0	0	0	1	-360	360;
31	75	0.002	0.127	0.036	9900	0	0	0	0	1	-360	360;
32	35	0.013	0.037	0.151	9900	0	0	0	0	1	-360	360;
32	37	0.016	0.087	0.015	9900	0	0	0	0	1	-360	360;
33	36	0.069	0.0064	0.098	9900	0	0	0	0	1	-360	360;
34	42	0.004	0.154	0.28	9900	0	0	0	0	1	-360	360;
35	36	0.052	0.029	0.05	9900	0	0	0	0	1	-360	360;
35	43	0.019	0.191	0.018	9900	0	0	0	0	1	-360	360;
35	44	0.007	0.089	0.134	9900	0	0	0	0	1	-360	360;
36	40	0.036	0.014	0.034	9900	0	0	0	0	1	-360	360;
37	38	0.045	0.072	0.065	9900	0	0	0	0	1	-360	360;
37	42	0.043	0.262	0.014	9900	0	0	0	0	1	-360	360;
37	46	0	0.039	0	9900	0	0	0	0	1	-360	360;
38	41	0.0025	0.084	0.013	9900	0	0	0	0	1	-360	360;
38	47	0.006	0.084	0.02	9900	0	0	0	0	1	-360	360;
38	39	0.007	0.02	0.026	9900	0	0	0	0	1	-360	360;
39	52	0.001	0.041	0.042	9900	0	0	0	0	1	-360	360;
39	62	0.012	0.054	0.008	9900	0	0	0	0	1	-360	360;
39	40	0.006	0.021	0.002	9900	0	0	0	0	1	-360	360;
40	68	0.01	0.042	0.003	9900	0	0	0	0	1	-360	360;
41	61	0.004	0.145	0.043	9900	0	0	0	0	1	-360	360;
41	92	0.008	0.118	0.008	9900	0	0	0	0	1	-360	360;
42	87	0.022	0.062	0.007	9900	0	0	0	0	1	-360	360;
43	44	0.01	0.094	0.02	9900	0	0	0	0	1	-360	360;
44	45	0.017	0.109	0.048	9900	0	0	0	0	1	-360	360;
45	48	0.102	0.08	0.033	9900	0	0	0	0	1	-360	360;
46	47	0.047	0.073	0.016	9900	0	0	0	0	1	-360	360;
47	48	0.008	0.103	0.02	9900	0	0	0	0	1	-360	360;
48	49	0.032	0.169	0.04	9900	0	0	0	0	1	-360	360;
49	50	0.0006	0.08	0.404	9900	0	0	0	0	1	-360	360;
49	55	0.026	0.537	0.022	9900	0	0	0	0	1	-360	360;
50	51	0	0.026	0	9900	0	0	0	0	1	-360	360;
51	53	0.065	0.013	0.02	9900	0	0	0	0	1	-360	360;
52	54	0.031	0.065	0.036	9900	0	0	0	0	1	-360	360;
53	54	0.002	0.059	0.806	9900	0	0	0	0	1	-360	360;
54	56	0.026	0.105	0.035	9900	0	0	0	0	1	-360	360;
54	123	0.095	0.007	0.032	9900	0	0	0	0	1	-360	360;
55	236	0.013	0.172	0.016	9900	0	0	0	0	1	-360	360;
55	56	0.027	0.038	0.039	9900	0	0	0	0	1	-360	360;
57	190	0.028	0.232	0.037	9900	0	0	0	0	1	-360	360;
57	66	0.007	0.157	0.312	9900	0	0	0	0	1	-360	360;
57	180	0.009	0.098	0.411	9900	0	0	0	0	1	-360	360;
58	59	0.005	0.1	0.69	9900	0	0	0	0	1	-360	360;
58	237	0.052	0.1234	0.073	9900	0	0	0	0	1	-360	360;
59	60	0.043	0.131	0.013	9900	0	0	0	0	1	-360	360;
59	61	0.025	0.099	0.007	9900	0	0	0	0	1	-360	360;
60	64	0.031	0.087	0.043	9900	0	0	0	0	1	-360	360;
60	238	0.037	0.193	0.049	9900	0	0	0	0	1	-360	360;
61	63	0.027	0.057	0.036	9900	0	0	0	0	1	-360	360;
61	66	0.025	0.052	0.035	9900	0	0	0	0	1	-360	360;
61	62	0.035	0.0244	0.047	9900	0	0	0	0	1	-360	360;
62	73	0.065	0.027	0.082	9900	0	0	0	0	1	-360	360;
62	240	0.046	0.2013	0.036	9900	0	0	0	0	1	-360	360;
63	64	0.159	0.043	0.071	9900	0	0	0	0	1	-360	360;
64	65	0.009	0.006	0.005	9900	0	0	0	0	1	-360	360;
64	67	0.002	0.07	0.015	9900	0	0	0	0	1	-360	360;
64	239	0.009	0.2676	0.485	9900	0	0	0	0	1	-360	360;
64	241	0.016	0.2127	0.203	9900	0	0	0	0	1	-360	360;
65	66	0.001	0.022	0.013	9900	0	0	0	0	1	-360	360;
65	69	0.0265	0.036	0.026	9900	0	0	0	0	1	-360	360;
66	190	0.051	0.375	0.028	9900	0	0	0	0	1	-360	360;
67	190	0.051	0.107	0.023	9900	0	0	0	0	1	-360	360;
68	173	0.032	0.033	0.062	9900	0	0	0	0	1	-360	360;
68	174	0.02	0.033	0.028	9900	0	0	0	0	1	-360	360;
68	73	0.036	0.02	0.068	9900	0	0	0	0	1	-360	360;
70	71	0.034	0.064	0.047	9900	0	0	0	0	1	-360	360;
70	81	0.018	0.048	0.011	9900	0	0	0	0	1	-360	360;
71	72	0.0256	0.093	0	9900	0	0	0	0	1	-360	360;
71	234	0.021	0.048	0.03	9900	0	0	0	0	1	-360	360;
71	83	0.018	0.048	0.018	9900	0	0	0	0	1	-360	360;
72	78	0.004	0.046	0.05	9900	0	0	0	0	1	-360	360;
74	76	0.0286	0.119	0.379	9900	0	0	0	0	1	-360	360;
75	77	0.016	0.174	0.004	9900	0	0	0	0	1	-360	360;
76	78	0.001	0.253	0.007	9900	0	0	0	0	1	-360	360;
76	79	0.014	0.077	0.038	9900	0	0	0	0	1	-360	360;
77	84	0.0891	0.144	0.029	9900	0	0	0	0	1	-360	360;
77	86	0.0782	0.092	0.022	9900	0	0	0	0	1	-360	360;
78	79	0.006	0.427	0.011	9900	0	0	0	0	1	-360	360;
79	82	0	0.053	0	9900	0	0	0	0	1	-360	360;
79	83	0.099	0.092	0.051	9900	0	0	0	0	1	-360	360;
79	84	0.022	0.122	0.058	9900	0	0	0	0	1	-360	360;
80	82	0.0035	0.064	0.53	9900	0	0	0	0	1	-360	360;
80	83	0.0035	0.121	0.53	9900	0	0	0	0	1	-360	360;
81	87	0.008	0.135	0.128	9900	0	0	0	0	1	-360	360;
81	88	0.012	0.004	0.183	9900	0	0	0	0	1	-360	360;
81	89	0.006	0.354	0.092	9900	0	0	0	0	1	-360	360;
81	90	0.047	0.174	0.014	9900	0	0	0	0	1	-360	360;
82	83	0.032	0.038	0.024	9900	0	0	0	0	1	-360	360;
83	85	0.1	0.064	0.031	9900	0	0	0	0	1	-360	360;
84	86	0.022	0.062	0.039	9900	0	0	0	0	1	-360	360;
85	88	0.019	0.13	0.017	9900	0	0	0	0	1	-360	360;
85	233	0.017	0.124	0.012	9900	0	0	0	0	1	-360	360;
86	87	0.278	0.088	0.043	9900	0	0	0	0	1	-360	360;
86	90	0.022	0.4	0.007	9900	0	0	0	0	1	-360	360;
88	235	0.038	0.208	0.012	9900	0	0	0	0	1	-360	360;
89	90	0.048	0.184	0.015	9900	0	0	0	0	1	-360	360;
89	92	0.024	0.274	0.007	9900	0	0	0	0	1	-360	360;
89	93	0.034	0.393	0.015	9900	0	0	0	0	1	-360	360;
90	91	0.053	0.404	0.017	9900	0	0	0	0	1	-360	360;
91	93	0.002	0.042	0.002	9900	0	0	0	0	1	-360	360;
93	186	0.045	0.149	0.044	9900	0	0	0	0	1	-360	360;
94	101	0.05	0.0199	0.022	9900	0	0	0	0	1	-360	360;
94	100	0.016	0.028	0.004	9900	0	0	0	0	1	-360	360;
95	99	0.043	0.1049	0.027	9900	0	0	0	0	1	-360	360;
95	103	0.019	0.0174	0.008	9900	0	0	0	0	1	-360	360;
96	97	0.076	0.0018	0.044	9900	0	0	0	0	1	-360	360;
96	138	0.044	0.016	0.015	9900	0	0	0	0	1	-360	360;
97	98	0.012	0.0271	0.011	9900	0	0	0	0	1	-360	360;
97	245	0.157	0.6163	0.047	9900	0	0	0	0	1	-360	360;
97	100	0.074	0.2915	0.026	9900	0	0	0	0	1	-360	360;
98	99	0.07	0.0339	0.021	9900	0	0	0	0	1	-360	360;
98	100	0.1	0.0582	0.031	9900	0	0	0	0	1	-360	360;
98	243	0.109	0.023	0.036	9900	0	0	0	0	1	-360	360;
99	245	0.142	-0.3697	0.05	9900	0	0	0	0	1	-360	360;
99	244	0.017	0.023	0.006	9900	0	0	0	0	1	-360	360;
101	102	0.0036	0.2344	0.004	9900	0	0	0	0	1	-360	360;
101	104	0.002	0.3669	0.001	9900	0	0	0	0	1	-360	360;
101	136	0.0001	0.0195	0.017	9900	0	0	0	0	1	-360	360;
102	103	0	0.1076	0	9900	0	0	0	0	1	-360	360;
102	104	0	0.1414	0	9900	0	0	0	0	1	-360	360;
103	139	0	0.0396	0	9900	0	0	0	0	1	-360	360;
104	105	0.0022	0.0197	0	9900	0	0	0	0	1	-360	360;
105	106	0	0.0405	0	9900	0	0	0	0	1	-360	360;
105	108	0	0.1106	0	9900	0	0	0	0	1	-360	360;
105	111	0.0808	0.1688	0.029	9900	0	0	0	0	1	-360	360;
105	136	0.0965	0.05	0.054	9900	0	0	0	0	1	-360	360;
105	137	0.036	0.0538	0.117	9900	0	0	0	0	1	-360	360;
105	148	0.0476	0.1157	0.149	9900	0	0	0	0	1	-360	360;
106	107	0.0006	0.0577	0	9900	0	0	0	0	1	-360	360;
106	113	0.0059	0.0336	0.25	9900	0	0	0	0	1	-360	360;
106	147	0.0115	0.0577	0.185	9900	0	0	0	0	1	-360	360;
107	109	0.0198	0.0773	0.321	9900	0	0	0	0	1	-360	360;
107	112	0.005	0.0193	0.33	9900	0	0	0	0	1	-360	360;
108	109	0.0077	0.0752	0.335	9900	0	0	0	0	1	-360	360;
108	112	0.0165	0.0186	0.171	9900	0	0	0	0	1	-360	360;
109	111	0.0059	0.0164	0.095	9900	0	0	0	0	1	-360	360;
109	130	0.0049	0.0165	0.208	9900	0	0	0	0	1	-360	360;
109	146	0.0059	0.0793	0.095	9900	0	0	0	0	1	-360	360;
109	147	0.0078	0.0784	0.126	9900	0	0	0	0	1	-360	360;
109	110	0.0026	0.018	0.03	9900	0	0	0	0	1	-360	360;
109	129	0.0076	0.014	0.122	9900	0	0	0	0	1	-360	360;
111	149	0.0021	0.0402	0.03	9900	0	0	0	0	1	-360	360;
112	116	0.0016	0.0117	0.026	9900	0	0	0	0	1	-360	360;
112	147	0.0017	0.0193	0.026	9900	0	0	0	0	1	-360	360;
112	148	0.0079	0.0186	0.127	9900	0	0	0	0	1	-360	360;
112	150	0.0078	0.0101	0.125	9900	0	0	0	0	1	-360	360;
113	114	0.0017	0.0293	0.289	9900	0	0	0	0	1	-360	360;
113	163	0.0026	0.0381	0.03	9900	0	0	0	0	1	-360	360;
114	115	0.0021	0.0623	0.03	9900	0	0	0	0	1	-360	360;
115	116	0.0002	0.089	0	9900	0	0	0	0	1	-360	360;
115	131	0.0043	0.039	0.18	9900	0	0	0	0	1	-360	360;
116	119	0.0039	0.0114	0.258	9900	0	0	0	0	1	-360	360;
116	160	0.0091	0.0034	0.385	9900	0	0	0	0	1	-360	360;
116	165	0.0125	0.0151	0.54	9900	0	0	0	0	1	-360	360;
116	167	0.0056	0.0034	0.953	9900	0	0	0	0	1	-360	360;
116	142	0.0015	0.0384	0.284	9900	0	0	0	0	1	-360	360;
117	160	0.0005	0.0202	0.021	9900	0	0	0	0	1	-360	360;
117	167	0.0007	0.0202	0.126	9900	0	0	0	0	1	-360	360;
118	151	0.0005	0.2248	0.021	9900	0	0	0	0	1	-360	360;
118	161	0.0562	0.0131	0.081	9900	0	0	0	0	1	-360	360;
119	120	0.012	0.0836	0.123	9900	0	0	0	0	1	-360	360;
119	121	0.0152	0.1132	0.684	9900	0	0	0	0	1	-360	360;
119	124	0.0468	0.3369	0.519	9900	0	0	0	0	1	-360	360;
119	125	0.043	0.3031	0.463	9900	0	0	0	0	1	-360	360;
119	126	0.0489	0.3492	0.538	9900	0	0	0	0	1	-360	360;
119	161	0.0013	0.0089	0.119	9900	0	0	0	0	1	-360	360;
120	125	0.0291	0.2267	0.342	9900	0	0	0	0	1	-360	360;
120	153	0.006	0.0603	0.767	9900	0	0	0	0	1	-360	360;
121	122	0.0075	0.057	0.119	9900	0	0	0	0	1	-360	360;
121	154	0.0127	0.0498	0.135	9900	0	0	0	0	1	-360	360;
122	124	0.0085	0.0773	0.087	9900	0	0	0	0	1	-360	360;
122	128	0.0218	0.0909	0.223	9900	0	0	0	0	1	-360	360;
122	123	0.0073	0.0833	0.074	9900	0	0	0	0	1	-360	360;
122	127	0.0523	0.0371	0.074	9900	0	0	0	0	1	-360	360;
124	125	0.1371	0.0588	0.076	9900	0	0	0	0	1	-360	360;
124	128	0.0137	0.1511	0.141	9900	0	0	0	0	1	-360	360;
124	159	0.0055	0.0182	0.19	9900	0	0	0	0	1	-360	360;
125	126	0.1746	0.0504	0.04	9900	0	0	0	0	1	-360	360;
127	157	0.0804	0.1526	0.045	9900	0	0	0	0	1	-360	360;
127	158	0.011	0.3919	0.388	9900	0	0	0	0	1	-360	360;
130	149	0.0008	0.0392	0.069	9900	0	0	0	0	1	-360	360;
131	132	0.0029	0.0957	0.19	9900	0	0	0	0	1	-360	360;
132	140	0.0066	0.0288	0.277	9900	0	0	0	0	1	-360	360;
132	162	0.0024	0.0639	0.236	9900	0	0	0	0	1	-360	360;
133	135	0.0018	0.3161	1.662	9900	0	0	0	0	1	-360	360;
133	162	0.0044	0.3054	3.597	9900	0	0	0	0	1	-360	360;
134	140	0.0002	0.0568	0	9900	0	0	0	0	1	-360	360;
134	135	0.0018	0.0256	0.029	9900	0	0	0	0	1	-360	360;
134	143	0.0669	0.0231	0.063	9900	0	0	0	0	1	-360	360;
136	138	0.0558	0.0098	0.031	9900	0	0	0	0	1	-360	360;
137	138	0.0807	0.0285	0.049	9900	0	0	0	0	1	-360	360;
137	139	0.0739	0.0448	0.043	9900	0	0	0	0	1	-360	360;
141	143	0.1799	0.0326	0.069	9900	0	0	0	0	1	-360	360;
141	144	0.0904	0.0245	0.048	9900	0	0	0	0	1	-360	360;
142	143	0.077	0.0514	0.054	9900	0	0	0	0	1	-360	360;
144	145	0.0251	0.0123	0.047	9900	0	0	0	0	1	-360	360;
146	148	0.0222	0.0178	0.05	9900	0	0	0	0	1	-360	360;
151	152	0.0498	0.4843	0.029	9900	0	0	0	0	1	-360	360;
151	153	0.0061	0.221	0.084	9900	0	0	0	0	1	-360	360;
152	153	0.0004	0.3331	0	9900	0	0	0	0	1	-360	360;
152	154	0.0004	0.3071	0.115	9900	0	0	0	0	1	-360	360;
152	155	0.0025	0.5017	0.164	9900	0	0	0	0	1	-360	360;
154	155	0.0007	0.3626	0.115	9900	0	0	0	0	1	-360	360;
154	158	0.0007	0.3092	0.115	9900	0	0	0	0	1	-360	360;
155	156	0.0004	0.0829	0	9900	0	0	0	0	1	-360	360;
156	157	0.033	0.0847	0	9900	0	0	0	0	1	-360	360;
157	158	0.046	0.1855	0	9900	0	0	0	0	1	-360	360;
157	159	0.0004	0.029	6.2	9900	0	0	0	0	1	-360	360;
160	166	0	0.0083	0	9900	0	0	0	0	1	-360	360;
163	164	0.003	0.0245	0	9900	0	0	0	0	1	-360	360;
165	167	0.002	0.0086	0	9900	0	0	0	0	1	-360	360;
166	167	0.045	0.0086	0	9900	0	0	0	0	1	-360	360;
168	187	0.048	0.095	0	9900	0	0	0	0	1	-360	360;
168	188	0.0031	0.069	0.5	9900	0	0	0	0	1	-360	360;
168	189	0.0024	0.252	0.36	9900	0	0	0	0	1	-360	360;
169	210	0.0031	0.0022	0.5	9900	0	0	0	0	1	-360	360;
169	219	0.014	0.0275	0.004	9900	0	0	0	0	1	-360	360;
169	208	0.03	0.0626	0.01	9900	0	0	0	0	1	-360	360;
170	171	0.01	0.048	0.009	9900	0	0	0	0	1	-360	360;
170	204	0.015	0.061	0.006	9900	0	0	0	0	1	-360	360;
171	204	0.332	0.009	0	9900	0	0	0	0	1	-360	360;
172	184	0.009	0.063	0.025	9900	0	0	0	0	1	-360	360;
172	187	0.02	0.127	0.008	9900	0	0	0	0	1	-360	360;
172	175	0.034	0.237	0.032	9900	0	0	0	0	1	-360	360;
173	198	0.076	0.0286	0.009	9900	0	0	0	0	1	-360	360;
173	242	0.04	0.0355	0.005	9900	0	0	0	0	1	-360	360;
174	198	0.081	0.0286	0.014	9900	0	0	0	0	1	-360	360;
174	191	0.124	0.0366	0	9900	0	0	0	0	1	-360	360;
175	176	0.01	0.04	0.008	9900	0	0	0	0	1	-360	360;
175	189	0.046	0.081	0	9900	0	0	0	0	1	-360	360;
175	246	0.302	0.02	0	9900	0	0	0	0	1	-360	360;
176	177	0.073	0.06	0	9900	0	0	0	0	1	-360	360;
176	190	0.24	0.04	0	9900	0	0	0	0	1	-360	360;
177	181	0.0139	0.688	0.086	9900	0	0	0	0	1	-360	360;
177	182	0.0025	0.046	0	9900	0	0	1	0	1	-360	360;
177	189	0.0017	0.073	0.02	9900	0	0	0	0	1	-360	360;
177	190	0.0015	0.109	0.002	9900	0	0	0	0	1	-360	360;
177	188	0.0045	0.211	0.026	9900	0	0	0	0	1	-360	360;
178	179	0.004	0.135	0.018	9900	0	0	0	0	1	-360	360;
178	189	0	0.102	0	9900	0	0	0	0	1	-360	360;
179	189	0.0005	0.128	0.02	9900	0	0	0	0	1	-360	360;
179	227	0.0027	0.22	0.832	9900	0	0	0	0	1	-360	360;
180	183	0.0003	0.183	5.2	9900	0	0	0	0	1	-360	360;
181	190	0.0037	0.128	0.43	9900	0	0	0	0	1	-360	360;
182	190	0.001	0.059	0.503	9900	0	0	0	0	1	-360	360;
183	184	0.0016	0.068	0.402	9900	0	0	0	0	1	-360	360;
183	246	0.0003	0.204	1	9900	0	0	0	0	1	-360	360;
184	185	0.0014	0.446	0.33	9900	0	0	1	0	1	-360	360;
185	186	0.01	0.093	0.48	9900	0	0	0	0	1	-360	360;
185	187	0.0019	0.421	0.86	9900	0	0	0	0	1	-360	360;
190	191	0.001	0.0122	0	9900	0	0	0	0	1	-360	360;
191	194	0.0005	0.0778	0	9900	0	0	0	0	1	-360	360;
192	193	0.0009	0.038	0.186	9900	0	0	1	0	1	-360	360;
193	194	0.0019	0.0185	1.28	9900	0	0	0	0	1	-360	360;
193	221	0.0026	0.0108	0	9900	0	0	0	0	1	-360	360;
194	195	0.0013	0.0249	0.81	9900	0	0	0	0	1	-360	360;
195	196	0	0.0497	0	9900	0	0	0	0	1	-360	360;
196	197	0.0002	0.0456	1.364	9900	0	0	0	0	1	-360	360;
196	198	0.0001	0.0177	3.57	9900	0	0	0	0	1	-360	360;
196	199	0.0017	0.0395	0	9900	0	0	0	0	1	-360	360;
197	199	0.0002	0.0484	0.144	9900	0	0	0	0	1	-360	360;
197	198	0.0006	0.0354	0	9900	0	0	0	0	1	-360	360;
198	216	0.0002	0.0018	0.8	9900	0	0	0	0	1	-360	360;
199	200	0.0005	0.0295	0	9900	0	0	1	0	1	-360	360;
199	217	0.0003	0.0046	0.009	9900	0	0	0	0	1	-360	360;
200	202	0.0082	0.0013	0	9900	0	0	0	0	1	-360	360;
201	216	0.0112	0.0514	0	9900	0	0	0	0	1	-360	360;
202	203	0.0127	0.0195	0	9900	0	0	0	0	1	-360	360;
203	204	0.0326	0.064	0	9900	0	0	0	0	1	-360	360;
203	205	0.0195	0.0081	0	9900	0	0	0	0	1	-360	360;
205	210	0.0157	0.0212	0	9900	0	0	0	0	1	-360	360;
206	210	0.036	0.0472	0	9900	0	0	0	0	1	-360	360;
207	208	0.0268	0.0087	0	9900	0	0	0	0	1	-360	360;
207	210	0.0428	0.0917	0	9900	0	0	0	0	1	-360	360;
207	213	0.0351	0.0288	0	9900	0	0	0	0	1	-360	360;
208	209	0.0616	0.0332	0	9900	0	0	0	0	1	-360	360;
210	211	0	0.0069	0	9900	0	0	0.947	0	1	-360	360;
210	216	0	0.0006	0	9900	0	0	0.956	0	1	-360	360;
211	212	0	0.0485	0	9900	0	0	0.971	0	1	-360	360;
213	214	0	0.0259	0	9900	0	0	0.948	0	1	-360	360;
213	216	0	0.0272	0	9900	0	0	0.959	0	1	-360	360;
213	215	0	0.016	0	9900	0	0	1.046	0	1	-360	360;
214	217	0	0.0006	0	9900	0	0	0.985	0	1	-360	360;
216	220	0.0194	0.0154	0	9900	0	0	0.9561	0	1	-360	360;
217	218	0.001	0.016	0	9900	0	0	0.971	0	1	-360	360;
219	230	0	0.0043	0	9900	0	0	0.952	0	1	-360	360;
221	224	0	0.0851	0	9900	0	0	0.943	0	1	-360	360;
221	226	0	0.0723	0	9900	0	0	1.01	0	1	-360	360;
222	223	0	0.0355	0	9900	0	0	1.008	0	1	-360	360;
222	224	0	0.1804	0	9900	0	0	1	0	1	-360	360;
223	225	0	0.0551	0	9900	0	0	0.975	0	1	-360	360;
224	225	0	0.0732	0	9900	0	0	1.017	0	1	-360	360;
224	226	0	0.2119	0	9900	0	0	1	0	1	-360	360;
225	226	0	0.1285	0	9900	0	0	1	0	1	-360	360;
226	227	0	0.1215	0	9900	0	0	1	0	1	-360	360;
227	228	0	0.1004	0	9900	0	0	1	0	1	-360	360;
228	229	0	0.1857	0	9900	0	0	1.015	0	1	-360	360;
];

%%-----  OPF Data  -----%%
%% generator cost data
%	1	startup	shutdown	n	x1	y1	...	xn	yn
%	2	startup	shutdown	n	c(n-1)	...	c0
mpc.gencost = [
	2	0	0	3	0.01	40	0;
	2	0	0	3	0.01	40	0;
	2	0	0	3	0.01	40	0;
	2	0	0	3	0.01	40	0;
	2	0	0	3	0.01	40	0;
	2	0	0	3	0.0266667	20	0;
	2	0	0	3	0.0645161	20	0;
	2	0	0	3	0.0344828	20	0;
	2	0	0	3	0.147059	20	0;
	2	0	0	3	0.0854701	20	0;
	2	0	0	3	0.00518135	20	0;
	2	0	0	3	0.0416667	20	0;
	2	0	0	3	0.01	40	0;
	2	0	0	3	0.01	40	0;
	2	0	0	3	0.0355872	20	0;
	2	0	0	3	0.0143678	20	0;
	2	0	0	3	0.119048	20	0;
	2	0	0	3	0.0460829	20	0;
	2	0	0	3	0.0970874	20	0;
	2	0	0	3	0.0268817	20	0;
	2	0	0	3	0.0462963	20	0;
	2	0	0	3	0.01	40	0;
	2	0	0	3	0.0487805	20	0;
	2	0	0	3	0.01	40	0;
	2	0	0	3	0.0438596	20	0;
	2	0	0	3	0.119048	20	0;
	2	0	0	3	0.05	20	0;
	2	0	0	3	0.00833333	20	0;
	2	0	0	3	0.00833333	20	0;
	2	0	0	3	0.0210526	20	0;
	2	0	0	3	0.00506842	20	0;
	2	0	0	3	0.0235849	20	0;
	2	0	0	3	0.0367647	20	0;
	2	0	0	3	0.1	20	0;
	2	0	0	3	0.0222222	20	0;
	2	0	0	3	0.04	20	0;
	2	0	0	3	0.0330033	20	0;
	2	0	0	3	0.0289855	20	0;
	2	0	0	3	0.0333333	20	0;
	2	0	0	3	0.0166667	20	0;
	2	0	0	3	0.04	20	0;
	2	0	0	3	0.0181818	20	0;
	2	0	0	3	0.0173783	20	0;
	2	0	0	3	0.0588235	20	0;
	2	0	0	3	0.119048	20	0;
	2	0	0	3	0.0214133	20	0;
	2	0	0	3	0.0160514	20	0;
	2	0	0	3	0.00826446	20	0;
	2	0	0	3	0.042735	20	0;
	2	0	0	3	0.0268817	20	0;
	2	0	0	3	0.030303	20	0;
	2	0	0	3	0.0540541	20	0;
	2	0	0	3	0.0243902	20	0;
	2	0	0	3	0.02	20	0;
	2	0	0	3	0.27027	20	0;
	2	0	0	3	0.01	40	0;
	2	0	0	3	0.222222	20	0;
	2	0	0	3	0.0606061	20	0;
	2	0	0	3	0.025	20	0;
	2	0	0	3	0.025	20	0;
	2	0	0	3	0.0862069	20	0;
	2	0	0	3	0.00773994	20	0;
	2	0	0	3	0.0142857	20	0;
	2	0	0	3	0.0180832	20	0;
	2	0	0	3	0.01	40	0;
	2	0	0	3	0.01	40	0;
	2	0	0	3	0.01	40	0;
	2	0	0	3	0.2	20	0;
	2	0	0	3	1.25	20	0;
];

% Warnings from cdf2matp conversion:
%
% ***** area data conversion not yet implemented (creating dummy area data)
% ***** negative Pg at bus 8 treated as Pd
% ***** negative Pg at bus 10 treated as Pd
% ***** negative Pg at bus 20 treated as Pd
% ***** negative Pg at bus 138 treated as Pd
% ***** Qmax = Qmin at generator at bus 7049 (Qmax set to Qmin + 10)
% ***** negative Pg at bus 9002 treated as Pd
% ***** negative Pg at bus 9051 treated as Pd
% ***** negative Pg at bus 9053 treated as Pd
% ***** Insufficient generation, setting Pmax at slack bus (bus 7049) to 2399.01
% ***** MVA limit of branch 37 - 9001 not given, set to 9900
% ***** MVA limit of branch 9001 - 9005 not given, set to 9900
% ***** MVA limit of branch 9001 - 9006 not given, set to 9900
% ***** MVA limit of branch 9001 - 9012 not given, set to 9900
% ***** MVA limit of branch 9005 - 9051 not given, set to 9900
% ***** MVA limit of branch 9005 - 9052 not given, set to 9900
% ***** MVA limit of branch 9005 - 9053 not given, set to 9900
% ***** MVA limit of branch 9005 - 9054 not given, set to 9900
% ***** MVA limit of branch 9005 - 9055 not given, set to 9900
% ***** MVA limit of branch 9006 - 9007 not given, set to 9900
% ***** MVA limit of branch 9006 - 9003 not given, set to 9900
% ***** MVA limit of branch 9006 - 9003 not given, set to 9900
% ***** MVA limit of branch 9012 - 9002 not given, set to 9900
% ***** MVA limit of branch 9012 - 9002 not given, set to 9900
% ***** MVA limit of branch 9002 - 9021 not given, set to 9900
% ***** MVA limit of branch 9021 - 9023 not given, set to 9900
% ***** MVA limit of branch 9021 - 9022 not given, set to 9900
% ***** MVA limit of branch 9002 - 9024 not given, set to 9900
% ***** MVA limit of branch 9023 - 9025 not given, set to 9900
% ***** MVA limit of branch 9023 - 9026 not given, set to 9900
% ***** MVA limit of branch 9007 - 9071 not given, set to 9900
% ***** MVA limit of branch 9007 - 9072 not given, set to 9900
% ***** MVA limit of branch 9007 - 9003 not given, set to 9900
% ***** MVA limit of branch 9003 - 9031 not given, set to 9900
% ***** MVA limit of branch 9003 - 9032 not given, set to 9900
% ***** MVA limit of branch 9003 - 9033 not given, set to 9900
% ***** MVA limit of branch 9003 - 9044 not given, set to 9900
% ***** MVA limit of branch 9044 - 9004 not given, set to 9900
% ***** MVA limit of branch 9004 - 9041 not given, set to 9900
% ***** MVA limit of branch 9004 - 9042 not given, set to 9900
% ***** MVA limit of branch 9004 - 9043 not given, set to 9900
% ***** MVA limit of branch 9003 - 9034 not given, set to 9900
% ***** MVA limit of branch 9003 - 9035 not given, set to 9900
% ***** MVA limit of branch 9003 - 9036 not given, set to 9900
% ***** MVA limit of branch 9003 - 9037 not given, set to 9900
% ***** MVA limit of branch 9003 - 9038 not given, set to 9900
% ***** MVA limit of branch 9012 - 9121 not given, set to 9900
% ***** MVA limit of branch 9053 - 9533 not given, set to 9900
% ***** MVA limit of branch 1 - 5 not given, set to 9900
% ***** MVA limit of branch 2 - 6 not given, set to 9900
% ***** MVA limit of branch 2 - 8 not given, set to 9900
% ***** MVA limit of branch 3 - 7 not given, set to 9900
% ***** MVA limit of branch 3 - 19 not given, set to 9900
% ***** MVA limit of branch 3 - 150 not given, set to 9900
% ***** MVA limit of branch 4 - 16 not given, set to 9900
% ***** MVA limit of branch 5 - 9 not given, set to 9900
% ***** MVA limit of branch 7 - 12 not given, set to 9900
% ***** MVA limit of branch 7 - 131 not given, set to 9900
% ***** MVA limit of branch 8 - 11 not given, set to 9900
% ***** MVA limit of branch 8 - 14 not given, set to 9900
% ***** MVA limit of branch 9 - 11 not given, set to 9900
% ***** MVA limit of branch 11 - 13 not given, set to 9900
% ***** MVA limit of branch 12 - 21 not given, set to 9900
% ***** MVA limit of branch 13 - 20 not given, set to 9900
% ***** MVA limit of branch 14 - 15 not given, set to 9900
% ***** MVA limit of branch 15 - 37 not given, set to 9900
% ***** MVA limit of branch 15 - 89 not given, set to 9900
% ***** MVA limit of branch 15 - 90 not given, set to 9900
% ***** MVA limit of branch 16 - 42 not given, set to 9900
% ***** MVA limit of branch 19 - 21 not given, set to 9900
% ***** MVA limit of branch 19 - 87 not given, set to 9900
% ***** MVA limit of branch 20 - 22 not given, set to 9900
% ***** MVA limit of branch 20 - 27 not given, set to 9900
% ***** MVA limit of branch 21 - 24 not given, set to 9900
% ***** MVA limit of branch 22 - 23 not given, set to 9900
% ***** MVA limit of branch 23 - 25 not given, set to 9900
% ***** MVA limit of branch 24 - 319 not given, set to 9900
% ***** MVA limit of branch 25 - 26 not given, set to 9900
% ***** MVA limit of branch 26 - 27 not given, set to 9900
% ***** MVA limit of branch 26 - 320 not given, set to 9900
% ***** MVA limit of branch 33 - 34 not given, set to 9900
% ***** MVA limit of branch 33 - 38 not given, set to 9900
% ***** MVA limit of branch 33 - 40 not given, set to 9900
% ***** MVA limit of branch 33 - 41 not given, set to 9900
% ***** MVA limit of branch 34 - 42 not given, set to 9900
% ***** MVA limit of branch 35 - 72 not given, set to 9900
% ***** MVA limit of branch 35 - 76 not given, set to 9900
% ***** MVA limit of branch 35 - 77 not given, set to 9900
% ***** MVA limit of branch 36 - 88 not given, set to 9900
% ***** MVA limit of branch 37 - 38 not given, set to 9900
% ***** MVA limit of branch 37 - 40 not given, set to 9900
% ***** MVA limit of branch 37 - 41 not given, set to 9900
% ***** MVA limit of branch 37 - 49 not given, set to 9900
% ***** MVA limit of branch 37 - 89 not given, set to 9900
% ***** MVA limit of branch 37 - 90 not given, set to 9900
% ***** MVA limit of branch 38 - 41 not given, set to 9900
% ***** MVA limit of branch 38 - 43 not given, set to 9900
% ***** MVA limit of branch 39 - 42 not given, set to 9900
% ***** MVA limit of branch 40 - 48 not given, set to 9900
% ***** MVA limit of branch 41 - 42 not given, set to 9900
% ***** MVA limit of branch 41 - 49 not given, set to 9900
% ***** MVA limit of branch 41 - 51 not given, set to 9900
% ***** MVA limit of branch 42 - 46 not given, set to 9900
% ***** MVA limit of branch 43 - 44 not given, set to 9900
% ***** MVA limit of branch 43 - 48 not given, set to 9900
% ***** MVA limit of branch 43 - 53 not given, set to 9900
% ***** MVA limit of branch 44 - 47 not given, set to 9900
% ***** MVA limit of branch 44 - 54 not given, set to 9900
% ***** MVA limit of branch 45 - 60 not given, set to 9900
% ***** MVA limit of branch 45 - 74 not given, set to 9900
% ***** MVA limit of branch 46 - 81 not given, set to 9900
% ***** MVA limit of branch 47 - 73 not given, set to 9900
% ***** MVA limit of branch 47 - 113 not given, set to 9900
% ***** MVA limit of branch 48 - 107 not given, set to 9900
% ***** MVA limit of branch 49 - 51 not given, set to 9900
% ***** MVA limit of branch 51 - 52 not given, set to 9900
% ***** MVA limit of branch 52 - 55 not given, set to 9900
% ***** MVA limit of branch 53 - 54 not given, set to 9900
% ***** MVA limit of branch 54 - 55 not given, set to 9900
% ***** MVA limit of branch 55 - 57 not given, set to 9900
% ***** MVA limit of branch 57 - 58 not given, set to 9900
% ***** MVA limit of branch 57 - 63 not given, set to 9900
% ***** MVA limit of branch 58 - 59 not given, set to 9900
% ***** MVA limit of branch 59 - 61 not given, set to 9900
% ***** MVA limit of branch 60 - 62 not given, set to 9900
% ***** MVA limit of branch 62 - 64 not given, set to 9900
% ***** MVA limit of branch 62 - 144 not given, set to 9900
% ***** MVA limit of branch 63 - 526 not given, set to 9900
% ***** MVA limit of branch 69 - 211 not given, set to 9900
% ***** MVA limit of branch 69 - 79 not given, set to 9900
% ***** MVA limit of branch 70 - 71 not given, set to 9900
% ***** MVA limit of branch 70 - 528 not given, set to 9900
% ***** MVA limit of branch 71 - 72 not given, set to 9900
% ***** MVA limit of branch 71 - 73 not given, set to 9900
% ***** MVA limit of branch 72 - 77 not given, set to 9900
% ***** MVA limit of branch 72 - 531 not given, set to 9900
% ***** MVA limit of branch 73 - 76 not given, set to 9900
% ***** MVA limit of branch 73 - 79 not given, set to 9900
% ***** MVA limit of branch 74 - 88 not given, set to 9900
% ***** MVA limit of branch 74 - 562 not given, set to 9900
% ***** MVA limit of branch 76 - 77 not given, set to 9900
% ***** MVA limit of branch 77 - 78 not given, set to 9900
% ***** MVA limit of branch 77 - 80 not given, set to 9900
% ***** MVA limit of branch 77 - 552 not given, set to 9900
% ***** MVA limit of branch 77 - 609 not given, set to 9900
% ***** MVA limit of branch 78 - 79 not given, set to 9900
% ***** MVA limit of branch 78 - 84 not given, set to 9900
% ***** MVA limit of branch 79 - 211 not given, set to 9900
% ***** MVA limit of branch 80 - 211 not given, set to 9900
% ***** MVA limit of branch 81 - 194 not given, set to 9900
% ***** MVA limit of branch 81 - 195 not given, set to 9900
% ***** MVA limit of branch 85 - 86 not given, set to 9900
% ***** MVA limit of branch 86 - 87 not given, set to 9900
% ***** MVA limit of branch 86 - 323 not given, set to 9900
% ***** MVA limit of branch 89 - 91 not given, set to 9900
% ***** MVA limit of branch 90 - 92 not given, set to 9900
% ***** MVA limit of branch 91 - 94 not given, set to 9900
% ***** MVA limit of branch 91 - 97 not given, set to 9900
% ***** MVA limit of branch 92 - 103 not given, set to 9900
% ***** MVA limit of branch 92 - 105 not given, set to 9900
% ***** MVA limit of branch 94 - 97 not given, set to 9900
% ***** MVA limit of branch 97 - 100 not given, set to 9900
% ***** MVA limit of branch 97 - 102 not given, set to 9900
% ***** MVA limit of branch 97 - 103 not given, set to 9900
% ***** MVA limit of branch 98 - 100 not given, set to 9900
% ***** MVA limit of branch 98 - 102 not given, set to 9900
% ***** MVA limit of branch 99 - 107 not given, set to 9900
% ***** MVA limit of branch 99 - 108 not given, set to 9900
% ***** MVA limit of branch 99 - 109 not given, set to 9900
% ***** MVA limit of branch 99 - 110 not given, set to 9900
% ***** MVA limit of branch 100 - 102 not given, set to 9900
% ***** MVA limit of branch 102 - 104 not given, set to 9900
% ***** MVA limit of branch 103 - 105 not given, set to 9900
% ***** MVA limit of branch 104 - 108 not given, set to 9900
% ***** MVA limit of branch 104 - 322 not given, set to 9900
% ***** MVA limit of branch 105 - 107 not given, set to 9900
% ***** MVA limit of branch 105 - 110 not given, set to 9900
% ***** MVA limit of branch 108 - 324 not given, set to 9900
% ***** MVA limit of branch 109 - 110 not given, set to 9900
% ***** MVA limit of branch 109 - 113 not given, set to 9900
% ***** MVA limit of branch 109 - 114 not given, set to 9900
% ***** MVA limit of branch 110 - 112 not given, set to 9900
% ***** MVA limit of branch 112 - 114 not given, set to 9900
% ***** MVA limit of branch 115 - 122 not given, set to 9900
% ***** MVA limit of branch 116 - 120 not given, set to 9900
% ***** MVA limit of branch 117 - 118 not given, set to 9900
% ***** MVA limit of branch 118 - 119 not given, set to 9900
% ***** MVA limit of branch 118 - 1201 not given, set to 9900
% ***** MVA limit of branch 1201 - 120 not given, set to 9900
% ***** MVA limit of branch 118 - 121 not given, set to 9900
% ***** MVA limit of branch 119 - 120 not given, set to 9900
% ***** MVA limit of branch 119 - 121 not given, set to 9900
% ***** MVA limit of branch 122 - 123 not given, set to 9900
% ***** MVA limit of branch 122 - 125 not given, set to 9900
% ***** MVA limit of branch 123 - 124 not given, set to 9900
% ***** MVA limit of branch 123 - 125 not given, set to 9900
% ***** MVA limit of branch 125 - 126 not given, set to 9900
% ***** MVA limit of branch 126 - 127 not given, set to 9900
% ***** MVA limit of branch 126 - 129 not given, set to 9900
% ***** MVA limit of branch 126 - 132 not given, set to 9900
% ***** MVA limit of branch 126 - 157 not given, set to 9900
% ***** MVA limit of branch 126 - 158 not given, set to 9900
% ***** MVA limit of branch 126 - 169 not given, set to 9900
% ***** MVA limit of branch 127 - 128 not given, set to 9900
% ***** MVA limit of branch 127 - 134 not given, set to 9900
% ***** MVA limit of branch 127 - 168 not given, set to 9900
% ***** MVA limit of branch 128 - 130 not given, set to 9900
% ***** MVA limit of branch 128 - 133 not given, set to 9900
% ***** MVA limit of branch 129 - 130 not given, set to 9900
% ***** MVA limit of branch 129 - 133 not given, set to 9900
% ***** MVA limit of branch 130 - 132 not given, set to 9900
% ***** MVA limit of branch 130 - 151 not given, set to 9900
% ***** MVA limit of branch 130 - 167 not given, set to 9900
% ***** MVA limit of branch 130 - 168 not given, set to 9900
% ***** MVA limit of branch 133 - 137 not given, set to 9900
% ***** MVA limit of branch 133 - 168 not given, set to 9900
% ***** MVA limit of branch 133 - 169 not given, set to 9900
% ***** MVA limit of branch 133 - 171 not given, set to 9900
% ***** MVA limit of branch 134 - 135 not given, set to 9900
% ***** MVA limit of branch 134 - 184 not given, set to 9900
% ***** MVA limit of branch 135 - 136 not given, set to 9900
% ***** MVA limit of branch 136 - 137 not given, set to 9900
% ***** MVA limit of branch 136 - 152 not given, set to 9900
% ***** MVA limit of branch 137 - 140 not given, set to 9900
% ***** MVA limit of branch 137 - 181 not given, set to 9900
% ***** MVA limit of branch 137 - 186 not given, set to 9900
% ***** MVA limit of branch 137 - 188 not given, set to 9900
% ***** MVA limit of branch 139 - 172 not given, set to 9900
% ***** MVA limit of branch 140 - 141 not given, set to 9900
% ***** MVA limit of branch 140 - 142 not given, set to 9900
% ***** MVA limit of branch 140 - 145 not given, set to 9900
% ***** MVA limit of branch 140 - 146 not given, set to 9900
% ***** MVA limit of branch 140 - 147 not given, set to 9900
% ***** MVA limit of branch 140 - 182 not given, set to 9900
% ***** MVA limit of branch 141 - 146 not given, set to 9900
% ***** MVA limit of branch 142 - 143 not given, set to 9900
% ***** MVA limit of branch 143 - 145 not given, set to 9900
% ***** MVA limit of branch 143 - 149 not given, set to 9900
% ***** MVA limit of branch 145 - 146 not given, set to 9900
% ***** MVA limit of branch 145 - 149 not given, set to 9900
% ***** MVA limit of branch 146 - 147 not given, set to 9900
% ***** MVA limit of branch 148 - 178 not given, set to 9900
% ***** MVA limit of branch 148 - 179 not given, set to 9900
% ***** MVA limit of branch 152 - 153 not given, set to 9900
% ***** MVA limit of branch 153 - 161 not given, set to 9900
% ***** MVA limit of branch 154 - 156 not given, set to 9900
% ***** MVA limit of branch 154 - 183 not given, set to 9900
% ***** MVA limit of branch 155 - 161 not given, set to 9900
% ***** MVA limit of branch 157 - 159 not given, set to 9900
% ***** MVA limit of branch 158 - 159 not given, set to 9900
% ***** MVA limit of branch 158 - 160 not given, set to 9900
% ***** MVA limit of branch 162 - 164 not given, set to 9900
% ***** MVA limit of branch 162 - 165 not given, set to 9900
% ***** MVA limit of branch 163 - 164 not given, set to 9900
% ***** MVA limit of branch 165 - 166 not given, set to 9900
% ***** MVA limit of branch 167 - 169 not given, set to 9900
% ***** MVA limit of branch 172 - 173 not given, set to 9900
% ***** MVA limit of branch 172 - 174 not given, set to 9900
% ***** MVA limit of branch 173 - 174 not given, set to 9900
% ***** MVA limit of branch 173 - 175 not given, set to 9900
% ***** MVA limit of branch 173 - 176 not given, set to 9900
% ***** MVA limit of branch 175 - 176 not given, set to 9900
% ***** MVA limit of branch 175 - 179 not given, set to 9900
% ***** MVA limit of branch 176 - 177 not given, set to 9900
% ***** MVA limit of branch 177 - 178 not given, set to 9900
% ***** MVA limit of branch 178 - 179 not given, set to 9900
% ***** MVA limit of branch 178 - 180 not given, set to 9900
% ***** MVA limit of branch 181 - 138 not given, set to 9900
% ***** MVA limit of branch 181 - 187 not given, set to 9900
% ***** MVA limit of branch 184 - 185 not given, set to 9900
% ***** MVA limit of branch 186 - 188 not given, set to 9900
% ***** MVA limit of branch 187 - 188 not given, set to 9900
% ***** MVA limit of branch 188 - 138 not given, set to 9900
% ***** MVA limit of branch 189 - 208 not given, set to 9900
% ***** MVA limit of branch 189 - 209 not given, set to 9900
% ***** MVA limit of branch 190 - 231 not given, set to 9900
% ***** MVA limit of branch 190 - 240 not given, set to 9900
% ***** MVA limit of branch 191 - 192 not given, set to 9900
% ***** MVA limit of branch 192 - 225 not given, set to 9900
% ***** MVA limit of branch 193 - 205 not given, set to 9900
% ***** MVA limit of branch 193 - 208 not given, set to 9900
% ***** MVA limit of branch 194 - 219 not given, set to 9900
% ***** MVA limit of branch 194 - 664 not given, set to 9900
% ***** MVA limit of branch 195 - 219 not given, set to 9900
% ***** MVA limit of branch 196 - 197 not given, set to 9900
% ***** MVA limit of branch 196 - 210 not given, set to 9900
% ***** MVA limit of branch 197 - 198 not given, set to 9900
% ***** MVA limit of branch 197 - 211 not given, set to 9900
% ***** MVA limit of branch 198 - 202 not given, set to 9900
% ***** MVA limit of branch 198 - 203 not given, set to 9900
% ***** MVA limit of branch 198 - 210 not given, set to 9900
% ***** MVA limit of branch 198 - 211 not given, set to 9900
% ***** MVA limit of branch 199 - 200 not given, set to 9900
% ***** MVA limit of branch 199 - 210 not given, set to 9900
% ***** MVA limit of branch 200 - 210 not given, set to 9900
% ***** MVA limit of branch 201 - 204 not given, set to 9900
% ***** MVA limit of branch 203 - 211 not given, set to 9900
% ***** MVA limit of branch 204 - 205 not given, set to 9900
% ***** MVA limit of branch 205 - 206 not given, set to 9900
% ***** MVA limit of branch 206 - 207 not given, set to 9900
% ***** MVA limit of branch 206 - 208 not given, set to 9900
% ***** MVA limit of branch 212 - 215 not given, set to 9900
% ***** MVA limit of branch 213 - 214 not given, set to 9900
% ***** MVA limit of branch 214 - 215 not given, set to 9900
% ***** MVA limit of branch 214 - 242 not given, set to 9900
% ***** MVA limit of branch 215 - 216 not given, set to 9900
% ***** MVA limit of branch 216 - 217 not given, set to 9900
% ***** MVA limit of branch 217 - 218 not given, set to 9900
% ***** MVA limit of branch 217 - 219 not given, set to 9900
% ***** MVA limit of branch 217 - 220 not given, set to 9900
% ***** MVA limit of branch 219 - 237 not given, set to 9900
% ***** MVA limit of branch 220 - 218 not given, set to 9900
% ***** MVA limit of branch 220 - 221 not given, set to 9900
% ***** MVA limit of branch 220 - 238 not given, set to 9900
% ***** MVA limit of branch 221 - 223 not given, set to 9900
% ***** MVA limit of branch 222 - 237 not given, set to 9900
% ***** MVA limit of branch 224 - 225 not given, set to 9900
% ***** MVA limit of branch 224 - 226 not given, set to 9900
% ***** MVA limit of branch 225 - 191 not given, set to 9900
% ***** MVA limit of branch 226 - 231 not given, set to 9900
% ***** MVA limit of branch 227 - 231 not given, set to 9900
% ***** MVA limit of branch 228 - 229 not given, set to 9900
% ***** MVA limit of branch 228 - 231 not given, set to 9900
% ***** MVA limit of branch 228 - 234 not given, set to 9900
% ***** MVA limit of branch 229 - 190 not given, set to 9900
% ***** MVA limit of branch 231 - 232 not given, set to 9900
% ***** MVA limit of branch 231 - 237 not given, set to 9900
% ***** MVA limit of branch 232 - 233 not given, set to 9900
% ***** MVA limit of branch 234 - 235 not given, set to 9900
% ***** MVA limit of branch 234 - 237 not given, set to 9900
% ***** MVA limit of branch 235 - 238 not given, set to 9900
% ***** MVA limit of branch 241 - 237 not given, set to 9900
% ***** MVA limit of branch 240 - 281 not given, set to 9900
% ***** MVA limit of branch 242 - 245 not given, set to 9900
% ***** MVA limit of branch 242 - 247 not given, set to 9900
% ***** MVA limit of branch 243 - 244 not given, set to 9900
% ***** MVA limit of branch 243 - 245 not given, set to 9900
% ***** MVA limit of branch 244 - 246 not given, set to 9900
% ***** MVA limit of branch 245 - 246 not given, set to 9900
% ***** MVA limit of branch 245 - 247 not given, set to 9900
% ***** MVA limit of branch 246 - 247 not given, set to 9900
% ***** MVA limit of branch 247 - 248 not given, set to 9900
% ***** MVA limit of branch 248 - 249 not given, set to 9900
% ***** MVA limit of branch 249 - 250 not given, set to 9900
% ***** MVA limit of branch 3 - 1 not given, set to 9900
% ***** MVA limit of branch 3 - 2 not given, set to 9900
% ***** MVA limit of branch 3 - 4 not given, set to 9900
% ***** MVA limit of branch 7 - 5 not given, set to 9900
% ***** MVA limit of branch 7 - 6 not given, set to 9900
% ***** MVA limit of branch 10 - 11 not given, set to 9900
% ***** MVA limit of branch 12 - 10 not given, set to 9900
% ***** MVA limit of branch 15 - 17 not given, set to 9900
% ***** MVA limit of branch 16 - 15 not given, set to 9900
% ***** MVA limit of branch 21 - 20 not given, set to 9900
% ***** MVA limit of branch 24 - 23 not given, set to 9900
% ***** MVA limit of branch 36 - 35 not given, set to 9900
% ***** MVA limit of branch 45 - 44 not given, set to 9900
% ***** MVA limit of branch 45 - 46 not given, set to 9900
% ***** MVA limit of branch 62 - 61 not given, set to 9900
% ***** MVA limit of branch 63 - 64 not given, set to 9900
% ***** MVA limit of branch 73 - 74 not given, set to 9900
% ***** MVA limit of branch 81 - 88 not given, set to 9900
% ***** MVA limit of branch 85 - 99 not given, set to 9900
% ***** MVA limit of branch 86 - 102 not given, set to 9900
% ***** MVA limit of branch 87 - 94 not given, set to 9900
% ***** MVA limit of branch 114 - 207 not given, set to 9900
% ***** MVA limit of branch 116 - 124 not given, set to 9900
% ***** MVA limit of branch 121 - 115 not given, set to 9900
% ***** MVA limit of branch 122 - 157 not given, set to 9900
% ***** MVA limit of branch 130 - 131 not given, set to 9900
% ***** MVA limit of branch 130 - 150 not given, set to 9900
% ***** MVA limit of branch 132 - 170 not given, set to 9900
% ***** MVA limit of branch 141 - 174 not given, set to 9900
% ***** MVA limit of branch 142 - 175 not given, set to 9900
% ***** MVA limit of branch 143 - 144 not given, set to 9900
% ***** MVA limit of branch 143 - 148 not given, set to 9900
% ***** MVA limit of branch 145 - 180 not given, set to 9900
% ***** MVA limit of branch 151 - 170 not given, set to 9900
% ***** MVA limit of branch 153 - 183 not given, set to 9900
% ***** MVA limit of branch 155 - 156 not given, set to 9900
% ***** MVA limit of branch 159 - 117 not given, set to 9900
% ***** MVA limit of branch 160 - 124 not given, set to 9900
% ***** MVA limit of branch 163 - 137 not given, set to 9900
% ***** MVA limit of branch 164 - 155 not given, set to 9900
% ***** MVA limit of branch 182 - 139 not given, set to 9900
% ***** MVA limit of branch 189 - 210 not given, set to 9900
% ***** MVA limit of branch 193 - 196 not given, set to 9900
% ***** MVA limit of branch 195 - 212 not given, set to 9900
% ***** MVA limit of branch 200 - 248 not given, set to 9900
% ***** MVA limit of branch 201 - 69 not given, set to 9900
% ***** MVA limit of branch 202 - 211 not given, set to 9900
% ***** MVA limit of branch 204 - 2040 not given, set to 9900
% ***** MVA limit of branch 209 - 198 not given, set to 9900
% ***** MVA limit of branch 211 - 212 not given, set to 9900
% ***** MVA limit of branch 218 - 219 not given, set to 9900
% ***** MVA limit of branch 223 - 224 not given, set to 9900
% ***** MVA limit of branch 229 - 230 not given, set to 9900
% ***** MVA limit of branch 234 - 236 not given, set to 9900
% ***** MVA limit of branch 238 - 239 not given, set to 9900
% ***** MVA limit of branch 196 - 2040 not given, set to 9900
% ***** MVA limit of branch 119 - 1190 not given, set to 9900
% ***** MVA limit of branch 120 - 1200 not given, set to 9900
% ***** MVA limit of branch 7002 - 2 not given, set to 9900
% ***** MVA limit of branch 7003 - 3 not given, set to 9900
% ***** MVA limit of branch 7061 - 61 not given, set to 9900
% ***** MVA limit of branch 7062 - 62 not given, set to 9900
% ***** MVA limit of branch 7166 - 166 not given, set to 9900
% ***** MVA limit of branch 7024 - 24 not given, set to 9900
% ***** MVA limit of branch 7001 - 1 not given, set to 9900
% ***** MVA limit of branch 7130 - 130 not given, set to 9900
% ***** MVA limit of branch 7011 - 11 not given, set to 9900
% ***** MVA limit of branch 7023 - 23 not given, set to 9900
% ***** MVA limit of branch 7049 - 49 not given, set to 9900
% ***** MVA limit of branch 7139 - 139 not given, set to 9900
% ***** MVA limit of branch 7012 - 12 not given, set to 9900
% ***** MVA limit of branch 7017 - 17 not given, set to 9900
% ***** MVA limit of branch 7039 - 39 not given, set to 9900
% ***** MVA limit of branch 7057 - 57 not given, set to 9900
% ***** MVA limit of branch 7044 - 44 not given, set to 9900
% ***** MVA limit of branch 7055 - 55 not given, set to 9900
% ***** MVA limit of branch 7071 - 71 not given, set to 9900



%for i=1:247
   
%    temp=demand(i);
%    if temp < 0
%        demand(i)=0;
%    end 
    
%end

%for i=1:247
   
%    temp=demand(i);
%    if temp < 0
%        demand(i)=abs(demand(i));
%    else
%        demand(i)=0;
%    end 
    
%end


%o=ones(247,1);
%for i=1:246
   
%    temp=o(i+1);
%    temp=temp+o(i);
%    o(i+1)=temp;
    
%end

%type=ones(179,1);

%for i=1:121
%   temp=r(i);
%   type(temp)=2;
%end


